           3
 T=   0.0000000000000000        Free Energy=   15.081153050239681      kcal/mol
 O   -1.6391351850493806E-002  -4.3251098147732953E-002  -4.5456006060145757E-002
 H   0.48786937134979069      -0.19648139840149484       0.74520526391485808     
 H  -0.22772671234869674       0.88290773952903134       -2.3785432779946630E-002
   6.5287646399317881E-006  -4.9808098191637009E-006   1.7981195822878904E-005   7.6479853236010356E-006  -1.4012860740522921E-006   1.3177090105305376E-005  -2.0043946498930845E-005   7.8472165078666967E-006  -2.7996275605130519E-005   8.3199081215246023E-005   4.0213096063699716E-006  -7.7518715772927269E-006   4.2963524876663771E-006  -2.9740171360328105E-005   3.6701653207452104E-005  -2.9560446723200686E-005   1.0767647754776628E-005  -4.7226516367200610E-005   1.1746395756312331E-004  -3.7992483059797063E-005   1.8983790589405152E-004  -5.9653984061125809E-006   1.1995373574291508E-005  -2.4718296308284405E-006  -3.3478464869595433E-006   1.3720045916943496E-005   2.9918703982260994E-007   2.7112848473950991E-005   1.5821280475788231E-005  -6.3881760473390268E-005   1.2861022064028322E-006  -1.5216326644816685E-006  -5.8196850813172841E-006  -4.9037583756926009E-006  -6.1507311313272909E-005   2.6031235451091049E-004  -9.0765851275827731E-007  -5.1851930607074162E-006  -5.2684808176425133E-006  -5.9321703982392624E-006   2.0876639581248312E-005  -1.6965314377910354E-006   9.5481076568651806E-006  -2.1982590315775469E-007   2.2685147549567579E-005
