          18
  -45.6932620363550        48.7163356973510      | kcal/mol
 O    1.07695014557641        2.03268785893517        1.60346940260733     
 H   0.777739163821874        2.21162108889006        2.49503328393244     
 H    1.32043239642128        1.09120833017517        1.59073830660653     
 O    1.37527636351765      -0.672315032335761        1.11452296856916     
 H    1.36435834402014      -0.664204416607253       0.128545913405667     
 H    2.04748033959297       -1.30181280985543        1.37378167069933     
 O    1.00960856056334      -0.411313179954713       -1.52039528530134     
 H   0.349760064157503       -1.08831556743479       -1.73559565782805     
 H   0.501482974495103       0.408627291227121       -1.47204386916793     
 O   -1.55042639017779      -0.667650329988689       0.755186687197538     
 H  -0.680513365204722      -0.811827864232212        1.14676535291870     
 H   -1.47443322962005       0.209410762022770       0.359065565194037     
 O   -1.08286439986281       -2.27348048150646       -1.45720694640567     
 H   -1.83925336561839       -2.53291864951905       -1.98163667141312     
 H   -1.43839887546943       -1.80717406325917      -0.679989889231180     
 O  -0.608599976948487        1.79281262208782      -0.529577461771027     
 H  -0.945003615494203        2.59094014139714      -0.935543405653797     
 H  -4.778047549340100E-002   2.07724530164313       0.215987443731367     
