          18
 -7.999284709097274E-002
 O  -1.55510303577428      -0.209687280777036        1.44344400309193     
 H  -1.99358040065719      -0.433472341721646        2.24951962290229     
 H -0.662246955887271      -0.591311278166434        1.52354131039904     
 O  -1.67954796672028      -0.358541466978385       -1.33772352528070     
 H  -2.44403436900810      -0.767429885203522       -1.71273920535306     
 H  -1.78192271699484      -0.414751620601277      -0.380014485562737     
 O -0.562898169924443        1.97676652294934      -0.116947677934931     
 H -0.951529172598395        1.50616911449336      -0.850667608144281     
 H -0.930292113629795        1.53162707268871       0.643914981403942     
 O  0.971034226349528       -1.15724322264350        1.42643275441039     
 H   1.53477996334166      -0.398418014732085        1.30430942646318     
 H  0.966043962271152       -1.54555248450858       0.546013250492675     
 O  0.943758077798207       -1.33393414122267       -1.32916632713662     
 H   1.43284092404063      -0.532583008281276       -1.13930754448643     
 H  4.339762456084647E-002  -1.04883844336410       -1.49353196394611     
 O   1.98761019198446        1.03996010071906      -0.158808738707062     
 H   2.61767259720105        1.71464836578971      -0.355768151898507     
 H   1.12402032364711        1.48102924156034      -0.145251620712962     
